ligand
     RDKit          3D

 69 73  0  0  0  0  0  0  0  0999 V2000
   17.2270   55.3720   10.3590 C   0  0  0  0  0  0  0  0  0  0  0  0
   16.9760   54.4420   11.5180 C   0  0  0  0  0  0  0  0  0  0  0  0
   17.7830   53.3020   11.6450 C   0  0  0  0  0  0  0  0  0  0  0  0
   17.6010   52.4160   12.7040 C   0  0  0  0  0  0  0  0  0  0  0  0
   16.6140   52.6510   13.6630 C   0  0  0  0  0  0  0  0  0  0  0  0
   16.4960   51.6980   14.6990 N   0  0  0  0  0  0  0  0  0  0  0  0
   15.6160   51.7130   15.7660 C   0  0  0  0  0  0  0  0  0  0  0  0
   14.8180   52.5930   16.0590 O   0  0  0  0  0  0  0  0  0  0  0  0
   15.7050   50.5300   16.6730 C   0  0  0  0  0  0  0  0  0  0  0  0
   14.5440   50.1130   17.3340 C   0  0  0  0  0  0  0  0  0  0  0  0
   14.5750   49.0030   18.1810 C   0  0  0  0  0  0  0  0  0  0  0  0
   15.7690   48.2930   18.3830 C   0  0  0  0  0  0  0  0  0  0  0  0
   15.7930   47.0750   19.2830 C   0  0  0  0  0  0  0  0  0  0  0  0
   17.0510   46.9480   20.0470 N   0  0  0  0  0  0  0  0  0  0  0  0
   17.2000   45.6070   20.6450 C   0  0  0  0  0  0  0  0  0  0  0  0
   18.5250   45.4660   21.4210 C   0  0  0  0  0  0  0  0  0  0  0  0
   18.6260   46.5470   22.4870 N   0  0  0  0  0  0  0  0  0  0  0  0
   19.8890   46.4330   23.2850 C   0  0  0  0  0  0  0  0  0  0  0  0
   18.4620   47.9250   21.8690 C   0  0  0  0  0  0  0  0  0  0  0  0
   17.1400   48.0000   21.0770 C   0  0  0  0  0  0  0  0  0  0  0  0
   16.9230   48.7000   17.6990 C   0  0  0  0  0  0  0  0  0  0  0  0
   16.8930   49.8090   16.8460 C   0  0  0  0  0  0  0  0  0  0  0  0
   15.8050   53.7860   13.5340 C   0  0  0  0  0  0  0  0  0  0  0  0
   15.9520   54.6900   12.4630 C   0  0  0  0  0  0  0  0  0  0  0  0
   15.1640   55.8460   12.3360 N   0  0  0  0  0  0  0  0  0  0  0  0
   15.3350   57.1840   12.6790 C   0  0  0  0  0  0  0  0  0  0  0  0
   16.4950   57.6590   13.1410 N   0  0  0  0  0  0  0  0  0  0  0  0
   16.5560   58.9660   13.4370 C   0  0  0  0  0  0  0  0  0  0  0  0
   15.5020   59.8270   13.2740 C   0  0  0  0  0  0  0  0  0  0  0  0
   14.3380   59.2750   12.7780 C   0  0  0  0  0  0  0  0  0  0  0  0
   13.1130   60.0580   12.5410 C   0  0  0  0  0  0  0  0  0  0  0  0
   12.8720   61.3070   13.1330 C   0  0  0  0  0  0  0  0  0  0  0  0
   11.6890   62.0020   12.8730 C   0  0  0  0  0  0  0  0  0  0  0  0
   10.7650   61.4310   12.0170 C   0  0  0  0  0  0  0  0  0  0  0  0
   10.9470   60.2390   11.4170 N   0  0  0  0  0  0  0  0  0  0  0  0
   12.1090   59.5920   11.6880 C   0  0  0  0  0  0  0  0  0  0  0  0
   14.2530   57.9570   12.4860 N   0  0  0  0  0  0  0  0  0  0  0  0
   17.4959   56.3683   10.7399 H   0  0  0  0  0  0  0  0  0  0  0  0
   18.0513   54.9792    9.7456 H   0  0  0  0  0  0  0  0  0  0  0  0
   16.3170   55.4473    9.7456 H   0  0  0  0  0  0  0  0  0  0  0  0
   18.5682   53.1055   10.9001 H   0  0  0  0  0  0  0  0  0  0  0  0
   18.2398   51.5242   12.7855 H   0  0  0  0  0  0  0  0  0  0  0  0
   17.1790   50.9560   14.6770 H   0  0  0  0  0  0  0  0  0  0  0  0
   13.6025   50.6622   17.1857 H   0  0  0  0  0  0  0  0  0  0  0  0
   13.6563   48.6825   18.6940 H   0  0  0  0  0  0  0  0  0  0  0  0
   14.9567   47.1476   19.9939 H   0  0  0  0  0  0  0  0  0  0  0  0
   15.7076   46.1875   18.6388 H   0  0  0  0  0  0  0  0  0  0  0  0
   16.3628   45.4312   21.3365 H   0  0  0  0  0  0  0  0  0  0  0  0
   17.2031   44.8690   19.8293 H   0  0  0  0  0  0  0  0  0  0  0  0
   18.5615   44.4771   21.9014 H   0  0  0  0  0  0  0  0  0  0  0  0
   19.3655   45.5734   20.7195 H   0  0  0  0  0  0  0  0  0  0  0  0
   17.8380   46.4080   23.1330 H   0  0  0  0  0  0  0  0  0  0  0  0
   19.6480   46.4548   24.3580 H   0  0  0  0  0  0  0  0  0  0  0  0
   20.3924   45.4858   23.0414 H   0  0  0  0  0  0  0  0  0  0  0  0
   20.5539   47.2748   23.0414 H   0  0  0  0  0  0  0  0  0  0  0  0
   18.4510   48.6821   22.6669 H   0  0  0  0  0  0  0  0  0  0  0  0
   19.3019   48.1134   21.1841 H   0  0  0  0  0  0  0  0  0  0  0  0
   16.2997   47.8831   21.7772 H   0  0  0  0  0  0  0  0  0  0  0  0
   17.1034   48.9753   20.5697 H   0  0  0  0  0  0  0  0  0  0  0  0
   17.8614   48.1421   17.8341 H   0  0  0  0  0  0  0  0  0  0  0  0
   17.8039   50.1148   16.3106 H   0  0  0  0  0  0  0  0  0  0  0  0
   15.0310   53.9781   14.2916 H   0  0  0  0  0  0  0  0  0  0  0  0
   14.2040   55.7170   12.0550 H   0  0  0  0  0  0  0  0  0  0  0  0
   17.5012   59.3677   13.8311 H   0  0  0  0  0  0  0  0  0  0  0  0
   15.5792   60.8955   13.5238 H   0  0  0  0  0  0  0  0  0  0  0  0
   13.6224   61.7432   13.8087 H   0  0  0  0  0  0  0  0  0  0  0  0
   11.4967   62.9802   13.3379 H   0  0  0  0  0  0  0  0  0  0  0  0
    9.8327   61.9790   11.8157 H   0  0  0  0  0  0  0  0  0  0  0  0
   12.2738   58.6220   11.1962 H   0  0  0  0  0  0  0  0  0  0  0  0
  1  2  1  0
  2  3  2  0
  3  4  1  0
  4  5  2  0
  5  6  1  0
  6  7  1  0
  7  8  2  0
  7  9  1  0
  9 10  2  0
 10 11  1  0
 11 12  2  0
 12 13  1  0
 13 14  1  0
 14 15  1  0
 15 16  1  0
 16 17  1  0
 17 18  1  0
 17 19  1  0
 19 20  1  0
 12 21  1  0
 21 22  2  0
  5 23  1  0
 23 24  2  0
 24 25  1  0
 25 26  1  0
 26 27  2  0
 27 28  1  0
 28 29  2  0
 29 30  1  0
 30 31  1  0
 31 32  2  0
 32 33  1  0
 33 34  2  0
 34 35  1  0
 35 36  2  0
 30 37  2  0
 24  2  1  0
 37 26  1  0
 22  9  1  0
 36 31  1  0
 20 14  1  0
  1 38  1  0
  1 39  1  0
  1 40  1  0
  3 41  1  0
  4 42  1  0
  6 43  1  0
 10 44  1  0
 11 45  1  0
 13 46  1  0
 13 47  1  0
 15 48  1  0
 15 49  1  0
 16 50  1  0
 16 51  1  0
 17 52  1  0
 18 53  1  0
 18 54  1  0
 18 55  1  0
 19 56  1  0
 19 57  1  0
 20 58  1  0
 20 59  1  0
 21 60  1  0
 22 61  1  0
 23 62  1  0
 25 63  1  0
 28 64  1  0
 29 65  1  0
 32 66  1  0
 33 67  1  0
 34 68  1  0
 36 69  1  0
M  CHG  1  17   1
M  END
>  <meeko>  (1) 
{"is_sidechain": [false], "free_energy": -12.959, "intermolecular_energy": -18.262, "internal_energy": -0.574}

$$$$
ligand
     RDKit          3D

 69 73  0  0  0  0  0  0  0  0999 V2000
   15.2780   47.3480   18.8630 C   0  0  0  0  0  0  0  0  0  0  0  0
   15.4860   48.5890   18.0340 C   0  0  0  0  0  0  0  0  0  0  0  0
   14.3660   49.3680   17.7080 C   0  0  0  0  0  0  0  0  0  0  0  0
   14.5040   50.5310   16.9540 C   0  0  0  0  0  0  0  0  0  0  0  0
   15.7630   50.9450   16.5140 C   0  0  0  0  0  0  0  0  0  0  0  0
   15.8090   52.1330   15.7510 N   0  0  0  0  0  0  0  0  0  0  0  0
   15.5090   52.2900   14.4100 C   0  0  0  0  0  0  0  0  0  0  0  0
   15.2130   51.4140   13.6070 O   0  0  0  0  0  0  0  0  0  0  0  0
   15.6080   53.6900   13.9010 C   0  0  0  0  0  0  0  0  0  0  0  0
   14.4310   54.3400   13.5160 C   0  0  0  0  0  0  0  0  0  0  0  0
   14.4730   55.6550   13.0470 C   0  0  0  0  0  0  0  0  0  0  0  0
   15.6930   56.3410   12.9530 C   0  0  0  0  0  0  0  0  0  0  0  0
   15.7320   57.7750   12.4680 C   0  0  0  0  0  0  0  0  0  0  0  0
   14.4550   58.4880   12.6710 N   0  0  0  0  0  0  0  0  0  0  0  0
   13.6330   58.5090   11.4460 C   0  0  0  0  0  0  0  0  0  0  0  0
   12.2880   59.2310   11.6650 C   0  0  0  0  0  0  0  0  0  0  0  0
   12.5280   60.6430   12.1790 N   0  0  0  0  0  0  0  0  0  0  0  0
   11.2470   61.3920   12.3830 C   0  0  0  0  0  0  0  0  0  0  0  0
   13.3820   60.6160   13.4360 C   0  0  0  0  0  0  0  0  0  0  0  0
   14.6970   59.8540   13.1700 C   0  0  0  0  0  0  0  0  0  0  0  0
   16.8670   55.6930   13.3650 C   0  0  0  0  0  0  0  0  0  0  0  0
   16.8270   54.3770   13.8400 C   0  0  0  0  0  0  0  0  0  0  0  0
   16.8800   50.1650   16.8350 C   0  0  0  0  0  0  0  0  0  0  0  0
   16.7690   48.9740   17.5780 C   0  0  0  0  0  0  0  0  0  0  0  0
   17.8850   48.1960   17.9300 N   0  0  0  0  0  0  0  0  0  0  0  0
   18.9480   48.3590   18.8120 C   0  0  0  0  0  0  0  0  0  0  0  0
   18.9930   47.7420   19.9970 N   0  0  0  0  0  0  0  0  0  0  0  0
   20.0660   47.9620   20.7710 C   0  0  0  0  0  0  0  0  0  0  0  0
   21.1120   48.7680   20.4000 C   0  0  0  0  0  0  0  0  0  0  0  0
   21.0100   49.3620   19.1580 C   0  0  0  0  0  0  0  0  0  0  0  0
   22.0440   50.2540   18.6060 C   0  0  0  0  0  0  0  0  0  0  0  0
   23.2350   49.7870   18.0290 C   0  0  0  0  0  0  0  0  0  0  0  0
   24.1810   50.6820   17.5250 C   0  0  0  0  0  0  0  0  0  0  0  0
   23.9140   52.0370   17.6060 C   0  0  0  0  0  0  0  0  0  0  0  0
   22.7860   52.5400   18.1440 N   0  0  0  0  0  0  0  0  0  0  0  0
   21.8870   51.6420   18.6210 C   0  0  0  0  0  0  0  0  0  0  0  0
   19.9290   49.1620   18.3690 N   0  0  0  0  0  0  0  0  0  0  0  0
   15.3217   47.6087   19.9308 H   0  0  0  0  0  0  0  0  0  0  0  0
   14.2944   46.9131   18.6317 H   0  0  0  0  0  0  0  0  0  0  0  0
   16.0660   46.6162   18.6317 H   0  0  0  0  0  0  0  0  0  0  0  0
   13.3683   49.0572   18.0514 H   0  0  0  0  0  0  0  0  0  0  0  0
   13.6146   51.1278   16.7033 H   0  0  0  0  0  0  0  0  0  0  0  0
   16.1610   52.9420   16.2400 H   0  0  0  0  0  0  0  0  0  0  0  0
   13.4677   53.8132   13.5829 H   0  0  0  0  0  0  0  0  0  0  0  0
   13.5409   56.1572   12.7486 H   0  0  0  0  0  0  0  0  0  0  0  0
   16.5224   58.3089   13.0159 H   0  0  0  0  0  0  0  0  0  0  0  0
   15.9268   57.7509   11.3857 H   0  0  0  0  0  0  0  0  0  0  0  0
   14.1904   59.0293   10.6532 H   0  0  0  0  0  0  0  0  0  0  0  0
   13.4177   57.4679   11.1635 H   0  0  0  0  0  0  0  0  0  0  0  0
   11.7418   59.2792   10.7114 H   0  0  0  0  0  0  0  0  0  0  0  0
   11.6979   58.6738   12.4075 H   0  0  0  0  0  0  0  0  0  0  0  0
   13.0660   61.1390   11.4570 H   0  0  0  0  0  0  0  0  0  0  0  0
   11.0554   61.5041   13.4604 H   0  0  0  0  0  0  0  0  0  0  0  0
   11.3258   62.3863   11.9192 H   0  0  0  0  0  0  0  0  0  0  0  0
   10.4191   60.8357   11.9192 H   0  0  0  0  0  0  0  0  0  0  0  0
   13.6146   61.6474   13.7395 H   0  0  0  0  0  0  0  0  0  0  0  0
   12.8267   60.1053   14.2365 H   0  0  0  0  0  0  0  0  0  0  0  0
   15.2820   60.4070   12.4204 H   0  0  0  0  0  0  0  0  0  0  0  0
   15.2416   59.7753   14.1225 H   0  0  0  0  0  0  0  0  0  0  0  0
   17.8287   56.2245   13.3142 H   0  0  0  0  0  0  0  0  0  0  0  0
   17.7537   53.8819   14.1657 H   0  0  0  0  0  0  0  0  0  0  0  0
   17.8743   50.4922   16.4967 H   0  0  0  0  0  0  0  0  0  0  0  0
   18.0760   47.3860   17.3590 H   0  0  0  0  0  0  0  0  0  0  0  0
   20.1094   47.4706   21.7542 H   0  0  0  0  0  0  0  0  0  0  0  0
   21.9813   48.9315   21.0539 H   0  0  0  0  0  0  0  0  0  0  0  0
   23.4252   48.7050   17.9732 H   0  0  0  0  0  0  0  0  0  0  0  0
   25.1162   50.3183   17.0743 H   0  0  0  0  0  0  0  0  0  0  0  0
   24.6617   52.7403   17.2105 H   0  0  0  0  0  0  0  0  0  0  0  0
   20.9580   52.0400   19.0553 H   0  0  0  0  0  0  0  0  0  0  0  0
  1  2  1  0
  2  3  2  0
  3  4  1  0
  4  5  2  0
  5  6  1  0
  6  7  1  0
  7  8  2  0
  7  9  1  0
  9 10  2  0
 10 11  1  0
 11 12  2  0
 12 13  1  0
 13 14  1  0
 14 15  1  0
 15 16  1  0
 16 17  1  0
 17 18  1  0
 17 19  1  0
 19 20  1  0
 12 21  1  0
 21 22  2  0
  5 23  1  0
 23 24  2  0
 24 25  1  0
 25 26  1  0
 26 27  2  0
 27 28  1  0
 28 29  2  0
 29 30  1  0
 30 31  1  0
 31 32  2  0
 32 33  1  0
 33 34  2  0
 34 35  1  0
 35 36  2  0
 30 37  2  0
 24  2  1  0
 37 26  1  0
 22  9  1  0
 36 31  1  0
 20 14  1  0
  1 38  1  0
  1 39  1  0
  1 40  1  0
  3 41  1  0
  4 42  1  0
  6 43  1  0
 10 44  1  0
 11 45  1  0
 13 46  1  0
 13 47  1  0
 15 48  1  0
 15 49  1  0
 16 50  1  0
 16 51  1  0
 17 52  1  0
 18 53  1  0
 18 54  1  0
 18 55  1  0
 19 56  1  0
 19 57  1  0
 20 58  1  0
 20 59  1  0
 21 60  1  0
 22 61  1  0
 23 62  1  0
 25 63  1  0
 28 64  1  0
 29 65  1  0
 32 66  1  0
 33 67  1  0
 34 68  1  0
 36 69  1  0
M  CHG  1  17   1
M  END
>  <meeko>  (2) 
{"is_sidechain": [false], "free_energy": -11.183, "intermolecular_energy": -15.377, "internal_energy": -0.956}

$$$$
ligand
     RDKit          3D

 69 73  0  0  0  0  0  0  0  0999 V2000
   16.6830   46.8160   19.6490 C   0  0  0  0  0  0  0  0  0  0  0  0
   16.7550   47.9770   18.6910 C   0  0  0  0  0  0  0  0  0  0  0  0
   15.6120   48.2950   17.9430 C   0  0  0  0  0  0  0  0  0  0  0  0
   15.6210   49.3660   17.0510 C   0  0  0  0  0  0  0  0  0  0  0  0
   16.7680   50.1450   16.8920 C   0  0  0  0  0  0  0  0  0  0  0  0
   16.6890   51.2070   15.9630 N   0  0  0  0  0  0  0  0  0  0  0  0
   15.6140   52.0430   15.7230 C   0  0  0  0  0  0  0  0  0  0  0  0
   14.4960   51.9780   16.2180 O   0  0  0  0  0  0  0  0  0  0  0  0
   15.8580   53.1080   14.7050 C   0  0  0  0  0  0  0  0  0  0  0  0
   17.1720   53.5510   14.5130 C   0  0  0  0  0  0  0  0  0  0  0  0
   17.4510   54.5360   13.5620 C   0  0  0  0  0  0  0  0  0  0  0  0
   16.4220   55.0950   12.7900 C   0  0  0  0  0  0  0  0  0  0  0  0
   16.7320   56.1440   11.7430 C   0  0  0  0  0  0  0  0  0  0  0  0
   15.9450   57.3820   11.9160 N   0  0  0  0  0  0  0  0  0  0  0  0
   16.3950   58.1640   13.0830 C   0  0  0  0  0  0  0  0  0  0  0  0
   15.5900   59.4690   13.2500 C   0  0  0  0  0  0  0  0  0  0  0  0
   14.1030   59.1590   13.3470 N   0  0  0  0  0  0  0  0  0  0  0  0
   13.2820   60.3970   13.5350 C   0  0  0  0  0  0  0  0  0  0  0  0
   13.6460   58.3460   12.1470 C   0  0  0  0  0  0  0  0  0  0  0  0
   14.5060   57.0720   12.0090 C   0  0  0  0  0  0  0  0  0  0  0  0
   15.1110   54.6290   12.9690 C   0  0  0  0  0  0  0  0  0  0  0  0
   14.8300   53.6390   13.9180 C   0  0  0  0  0  0  0  0  0  0  0  0
   17.9100   49.8260   17.6350 C   0  0  0  0  0  0  0  0  0  0  0  0
   17.9380   48.7370   18.5290 C   0  0  0  0  0  0  0  0  0  0  0  0
   19.0690   48.4210   19.3000 N   0  0  0  0  0  0  0  0  0  0  0  0
   20.3640   48.0070   19.0060 C   0  0  0  0  0  0  0  0  0  0  0  0
   20.6840   46.7190   18.8520 N   0  0  0  0  0  0  0  0  0  0  0  0
   21.9620   46.4270   18.5640 C   0  0  0  0  0  0  0  0  0  0  0  0
   22.9360   47.3780   18.4070 C   0  0  0  0  0  0  0  0  0  0  0  0
   22.5360   48.6890   18.5640 C   0  0  0  0  0  0  0  0  0  0  0  0
   23.4550   49.8330   18.4270 C   0  0  0  0  0  0  0  0  0  0  0  0
   23.9550   50.2750   17.1930 C   0  0  0  0  0  0  0  0  0  0  0  0
   24.8270   51.3640   17.1270 C   0  0  0  0  0  0  0  0  0  0  0  0
   25.1820   51.9950   18.3050 C   0  0  0  0  0  0  0  0  0  0  0  0
   24.7280   51.6170   19.5160 N   0  0  0  0  0  0  0  0  0  0  0  0
   23.8790   50.5580   19.5440 C   0  0  0  0  0  0  0  0  0  0  0  0
   21.2550   49.0030   18.8670 N   0  0  0  0  0  0  0  0  0  0  0  0
   16.7063   47.1916   20.6826 H   0  0  0  0  0  0  0  0  0  0  0  0
   15.7487   46.2601   19.4818 H   0  0  0  0  0  0  0  0  0  0  0  0
   17.5415   46.1489   19.4818 H   0  0  0  0  0  0  0  0  0  0  0  0
   14.6990   47.6930   18.0615 H   0  0  0  0  0  0  0  0  0  0  0  0
   14.7176   49.5989   16.4682 H   0  0  0  0  0  0  0  0  0  0  0  0
   17.4990   51.3190   15.3710 H   0  0  0  0  0  0  0  0  0  0  0  0
   17.9880   53.1220   15.1131 H   0  0  0  0  0  0  0  0  0  0  0  0
   18.4871   54.8761   13.4175 H   0  0  0  0  0  0  0  0  0  0  0  0
   17.8008   56.3964   11.8054 H   0  0  0  0  0  0  0  0  0  0  0  0
   16.4669   55.7197   10.7634 H   0  0  0  0  0  0  0  0  0  0  0  0
   16.2718   57.5525   13.9890 H   0  0  0  0  0  0  0  0  0  0  0  0
   17.4497   58.4335   12.9248 H   0  0  0  0  0  0  0  0  0  0  0  0
   15.9151   59.9819   14.1672 H   0  0  0  0  0  0  0  0  0  0  0  0
   15.7665   60.1145   12.3769 H   0  0  0  0  0  0  0  0  0  0  0  0
   13.9720   58.5710   14.1800 H   0  0  0  0  0  0  0  0  0  0  0  0
   13.1529   60.5916   14.6099 H   0  0  0  0  0  0  0  0  0  0  0  0
   13.7935   61.2508   13.0666 H   0  0  0  0  0  0  0  0  0  0  0  0
   12.2965   60.2580   13.0666 H   0  0  0  0  0  0  0  0  0  0  0  0
   12.5922   58.0605   12.2813 H   0  0  0  0  0  0  0  0  0  0  0  0
   13.7567   58.9546   11.2374 H   0  0  0  0  0  0  0  0  0  0  0  0
   14.3369   56.4328   12.8881 H   0  0  0  0  0  0  0  0  0  0  0  0
   14.2087   56.5611   11.0813 H   0  0  0  0  0  0  0  0  0  0  0  0
   14.2964   55.0453   12.3581 H   0  0  0  0  0  0  0  0  0  0  0  0
   13.7989   53.2777   14.0453 H   0  0  0  0  0  0  0  0  0  0  0  0
   18.8127   50.4436   17.5178 H   0  0  0  0  0  0  0  0  0  0  0  0
   18.9350   48.3370   20.2960 H   0  0  0  0  0  0  0  0  0  0  0  0
   22.2420   45.3696   18.4480 H   0  0  0  0  0  0  0  0  0  0  0  0
   23.9765   47.1116   18.1696 H   0  0  0  0  0  0  0  0  0  0  0  0
   23.6573   49.7588   16.2684 H   0  0  0  0  0  0  0  0  0  0  0  0
   25.2219   51.7114   16.1609 H   0  0  0  0  0  0  0  0  0  0  0  0
   25.8713   52.8505   18.2507 H   0  0  0  0  0  0  0  0  0  0  0  0
   23.4935   50.2452   20.5256 H   0  0  0  0  0  0  0  0  0  0  0  0
  1  2  1  0
  2  3  2  0
  3  4  1  0
  4  5  2  0
  5  6  1  0
  6  7  1  0
  7  8  2  0
  7  9  1  0
  9 10  2  0
 10 11  1  0
 11 12  2  0
 12 13  1  0
 13 14  1  0
 14 15  1  0
 15 16  1  0
 16 17  1  0
 17 18  1  0
 17 19  1  0
 19 20  1  0
 12 21  1  0
 21 22  2  0
  5 23  1  0
 23 24  2  0
 24 25  1  0
 25 26  1  0
 26 27  2  0
 27 28  1  0
 28 29  2  0
 29 30  1  0
 30 31  1  0
 31 32  2  0
 32 33  1  0
 33 34  2  0
 34 35  1  0
 35 36  2  0
 30 37  2  0
 24  2  1  0
 37 26  1  0
 22  9  1  0
 36 31  1  0
 20 14  1  0
  1 38  1  0
  1 39  1  0
  1 40  1  0
  3 41  1  0
  4 42  1  0
  6 43  1  0
 10 44  1  0
 11 45  1  0
 13 46  1  0
 13 47  1  0
 15 48  1  0
 15 49  1  0
 16 50  1  0
 16 51  1  0
 17 52  1  0
 18 53  1  0
 18 54  1  0
 18 55  1  0
 19 56  1  0
 19 57  1  0
 20 58  1  0
 20 59  1  0
 21 60  1  0
 22 61  1  0
 23 62  1  0
 25 63  1  0
 28 64  1  0
 29 65  1  0
 32 66  1  0
 33 67  1  0
 34 68  1  0
 36 69  1  0
M  CHG  1  17   1
M  END
>  <meeko>  (3) 
{"is_sidechain": [false], "free_energy": -10.832, "intermolecular_energy": -15.982, "internal_energy": 0.144}

$$$$
ligand
     RDKit          3D

 69 73  0  0  0  0  0  0  0  0999 V2000
   13.7320   46.8700   20.0680 C   0  0  0  0  0  0  0  0  0  0  0  0
   14.0810   47.9690   19.0970 C   0  0  0  0  0  0  0  0  0  0  0  0
   13.0640   48.8410   18.6830 C   0  0  0  0  0  0  0  0  0  0  0  0
   13.3350   49.8800   17.7960 C   0  0  0  0  0  0  0  0  0  0  0  0
   14.6280   50.0750   17.3080 C   0  0  0  0  0  0  0  0  0  0  0  0
   14.8120   51.1500   16.4090 N   0  0  0  0  0  0  0  0  0  0  0  0
   15.9580   51.4830   15.7120 C   0  0  0  0  0  0  0  0  0  0  0  0
   17.0580   50.9530   15.7930 O   0  0  0  0  0  0  0  0  0  0  0  0
   15.8210   52.6550   14.7970 C   0  0  0  0  0  0  0  0  0  0  0  0
   16.7550   52.8040   13.7650 C   0  0  0  0  0  0  0  0  0  0  0  0
   16.6590   53.8760   12.8760 C   0  0  0  0  0  0  0  0  0  0  0  0
   15.6290   54.8200   13.0050 C   0  0  0  0  0  0  0  0  0  0  0  0
   15.5130   55.9680   12.0240 C   0  0  0  0  0  0  0  0  0  0  0  0
   14.7950   57.1320   12.5800 N   0  0  0  0  0  0  0  0  0  0  0  0
   13.5960   57.4710   11.7890 C   0  0  0  0  0  0  0  0  0  0  0  0
   12.8320   58.6720   12.3850 C   0  0  0  0  0  0  0  0  0  0  0  0
   13.7570   59.8740   12.5070 N   0  0  0  0  0  0  0  0  0  0  0  0
   13.0500   61.0730   13.0600 C   0  0  0  0  0  0  0  0  0  0  0  0
   14.9940   59.5170   13.3150 C   0  0  0  0  0  0  0  0  0  0  0  0
   15.6990   58.2920   12.6960 C   0  0  0  0  0  0  0  0  0  0  0  0
   14.6810   54.6520   14.0250 C   0  0  0  0  0  0  0  0  0  0  0  0
   14.7720   53.5750   14.9140 C   0  0  0  0  0  0  0  0  0  0  0  0
   15.6430   49.2020   17.7160 C   0  0  0  0  0  0  0  0  0  0  0  0
   15.3950   48.1300   18.5960 C   0  0  0  0  0  0  0  0  0  0  0  0
   16.4090   47.2620   19.0350 N   0  0  0  0  0  0  0  0  0  0  0  0
   17.4830   47.3820   19.9100 C   0  0  0  0  0  0  0  0  0  0  0  0
   17.3680   47.1310   21.2180 N   0  0  0  0  0  0  0  0  0  0  0  0
   18.4670   47.2720   21.9750 C   0  0  0  0  0  0  0  0  0  0  0  0
   19.6880   47.6380   21.4730 C   0  0  0  0  0  0  0  0  0  0  0  0
   19.7420   47.8670   20.1130 C   0  0  0  0  0  0  0  0  0  0  0  0
   20.9740   48.2660   19.4110 C   0  0  0  0  0  0  0  0  0  0  0  0
   21.9600   47.3520   19.0070 C   0  0  0  0  0  0  0  0  0  0  0  0
   23.1100   47.7910   18.3480 C   0  0  0  0  0  0  0  0  0  0  0  0
   23.2530   49.1450   18.1030 C   0  0  0  0  0  0  0  0  0  0  0  0
   22.3370   50.0650   18.4640 N   0  0  0  0  0  0  0  0  0  0  0  0
   21.2290   49.6040   19.0980 C   0  0  0  0  0  0  0  0  0  0  0  0
   18.6410   47.7440   19.3350 N   0  0  0  0  0  0  0  0  0  0  0  0
   13.8493   47.2394   21.0975 H   0  0  0  0  0  0  0  0  0  0  0  0
   12.6900   46.5562   19.9075 H   0  0  0  0  0  0  0  0  0  0  0  0
   14.4020   46.0125   19.9075 H   0  0  0  0  0  0  0  0  0  0  0  0
   12.0410   48.7030   19.0629 H   0  0  0  0  0  0  0  0  0  0  0  0
   12.5242   50.5518   17.4778 H   0  0  0  0  0  0  0  0  0  0  0  0
   14.0230   51.7740   16.3210 H   0  0  0  0  0  0  0  0  0  0  0  0
   17.5689   52.0724   13.6540 H   0  0  0  0  0  0  0  0  0  0  0  0
   17.3972   53.9816   12.0674 H   0  0  0  0  0  0  0  0  0  0  0  0
   16.5257   56.2860   11.7354 H   0  0  0  0  0  0  0  0  0  0  0  0
   14.9345   55.6061   11.1612 H   0  0  0  0  0  0  0  0  0  0  0  0
   13.9058   57.7205   10.7634 H   0  0  0  0  0  0  0  0  0  0  0  0
   12.9236   56.6005   11.8004 H   0  0  0  0  0  0  0  0  0  0  0  0
   11.9878   58.9282   11.7279 H   0  0  0  0  0  0  0  0  0  0  0  0
   12.4607   58.4015   13.3845 H   0  0  0  0  0  0  0  0  0  0  0  0
   14.0720   60.1100   11.5580 H   0  0  0  0  0  0  0  0  0  0  0  0
   13.0714   61.0367   14.1592 H   0  0  0  0  0  0  0  0  0  0  0  0
   13.5533   61.9876   12.7135 H   0  0  0  0  0  0  0  0  0  0  0  0
   12.0060   61.0753   12.7135 H   0  0  0  0  0  0  0  0  0  0  0  0
   15.6860   60.3720   13.3170 H   0  0  0  0  0  0  0  0  0  0  0  0
   14.6928   59.2755   14.3450 H   0  0  0  0  0  0  0  0  0  0  0  0
   16.0618   58.5608   11.6929 H   0  0  0  0  0  0  0  0  0  0  0  0
   16.5304   58.0089   13.3583 H   0  0  0  0  0  0  0  0  0  0  0  0
   13.8576   55.3742   14.1272 H   0  0  0  0  0  0  0  0  0  0  0  0
   14.0184   53.4511   15.7057 H   0  0  0  0  0  0  0  0  0  0  0  0
   16.6644   49.3574   17.3385 H   0  0  0  0  0  0  0  0  0  0  0  0
   16.5020   46.3840   18.5470 H   0  0  0  0  0  0  0  0  0  0  0  0
   18.3831   47.0838   23.0555 H   0  0  0  0  0  0  0  0  0  0  0  0
   20.5739   47.7433   22.1165 H   0  0  0  0  0  0  0  0  0  0  0  0
   21.8253   46.2796   19.2116 H   0  0  0  0  0  0  0  0  0  0  0  0
   23.8843   47.0769   18.0310 H   0  0  0  0  0  0  0  0  0  0  0  0
   24.1616   49.4884   17.5867 H   0  0  0  0  0  0  0  0  0  0  0  0
   20.4693   50.3443   19.3894 H   0  0  0  0  0  0  0  0  0  0  0  0
  1  2  1  0
  2  3  2  0
  3  4  1  0
  4  5  2  0
  5  6  1  0
  6  7  1  0
  7  8  2  0
  7  9  1  0
  9 10  2  0
 10 11  1  0
 11 12  2  0
 12 13  1  0
 13 14  1  0
 14 15  1  0
 15 16  1  0
 16 17  1  0
 17 18  1  0
 17 19  1  0
 19 20  1  0
 12 21  1  0
 21 22  2  0
  5 23  1  0
 23 24  2  0
 24 25  1  0
 25 26  1  0
 26 27  2  0
 27 28  1  0
 28 29  2  0
 29 30  1  0
 30 31  1  0
 31 32  2  0
 32 33  1  0
 33 34  2  0
 34 35  1  0
 35 36  2  0
 30 37  2  0
 24  2  1  0
 37 26  1  0
 22  9  1  0
 36 31  1  0
 20 14  1  0
  1 38  1  0
  1 39  1  0
  1 40  1  0
  3 41  1  0
  4 42  1  0
  6 43  1  0
 10 44  1  0
 11 45  1  0
 13 46  1  0
 13 47  1  0
 15 48  1  0
 15 49  1  0
 16 50  1  0
 16 51  1  0
 17 52  1  0
 18 53  1  0
 18 54  1  0
 18 55  1  0
 19 56  1  0
 19 57  1  0
 20 58  1  0
 20 59  1  0
 21 60  1  0
 22 61  1  0
 23 62  1  0
 25 63  1  0
 28 64  1  0
 29 65  1  0
 32 66  1  0
 33 67  1  0
 34 68  1  0
 36 69  1  0
M  CHG  1  17   1
M  END
>  <meeko>  (4) 
{"is_sidechain": [false], "free_energy": -10.812, "intermolecular_energy": -14.96, "internal_energy": -0.851}

$$$$
ligand
     RDKit          3D

 69 73  0  0  0  0  0  0  0  0999 V2000
   15.1110   46.6950   20.4350 C   0  0  0  0  0  0  0  0  0  0  0  0
   15.4030   47.7710   19.4190 C   0  0  0  0  0  0  0  0  0  0  0  0
   14.3420   48.5690   18.9700 C   0  0  0  0  0  0  0  0  0  0  0  0
   14.5590   49.5840   18.0410 C   0  0  0  0  0  0  0  0  0  0  0  0
   15.8410   49.8280   17.5450 C   0  0  0  0  0  0  0  0  0  0  0  0
   15.9690   50.8730   16.6030 N   0  0  0  0  0  0  0  0  0  0  0  0
   15.3290   50.9960   15.3840 C   0  0  0  0  0  0  0  0  0  0  0  0
   14.5810   50.1860   14.8520 O   0  0  0  0  0  0  0  0  0  0  0  0
   15.6400   52.2480   14.6320 C   0  0  0  0  0  0  0  0  0  0  0  0
   15.0180   53.4350   15.0360 C   0  0  0  0  0  0  0  0  0  0  0  0
   15.2890   54.6340   14.3730 C   0  0  0  0  0  0  0  0  0  0  0  0
   16.1830   54.6660   13.2920 C   0  0  0  0  0  0  0  0  0  0  0  0
   16.4930   55.9720   12.5900 C   0  0  0  0  0  0  0  0  0  0  0  0
   15.5630   57.0580   12.9580 N   0  0  0  0  0  0  0  0  0  0  0  0
   14.4410   57.1710   12.0070 C   0  0  0  0  0  0  0  0  0  0  0  0
   13.4560   58.2890   12.4050 C   0  0  0  0  0  0  0  0  0  0  0  0
   14.1920   59.6150   12.5320 N   0  0  0  0  0  0  0  0  0  0  0  0
   13.2690   60.7380   12.8940 C   0  0  0  0  0  0  0  0  0  0  0  0
   15.3520   59.4920   13.5060 C   0  0  0  0  0  0  0  0  0  0  0  0
   16.2850   58.3390   13.0800 C   0  0  0  0  0  0  0  0  0  0  0  0
   16.8220   53.4770   12.9070 C   0  0  0  0  0  0  0  0  0  0  0  0
   16.5560   52.2760   13.5740 C   0  0  0  0  0  0  0  0  0  0  0  0
   16.9000   49.0280   17.9900 C   0  0  0  0  0  0  0  0  0  0  0  0
   16.7080   47.9810   18.9130 C   0  0  0  0  0  0  0  0  0  0  0  0
   17.7660   47.1880   19.3870 N   0  0  0  0  0  0  0  0  0  0  0  0
   19.1480   47.3370   19.4420 C   0  0  0  0  0  0  0  0  0  0  0  0
   19.9570   46.8340   18.5050 N   0  0  0  0  0  0  0  0  0  0  0  0
   21.2750   47.0390   18.6490 C   0  0  0  0  0  0  0  0  0  0  0  0
   21.8200   47.7450   19.6890 C   0  0  0  0  0  0  0  0  0  0  0  0
   20.9280   48.2510   20.6130 C   0  0  0  0  0  0  0  0  0  0  0  0
   21.3450   49.0350   21.7890 C   0  0  0  0  0  0  0  0  0  0  0  0
   22.6280   49.5860   21.9310 C   0  0  0  0  0  0  0  0  0  0  0  0
   22.9660   50.3170   23.0720 C   0  0  0  0  0  0  0  0  0  0  0  0
   22.0080   50.4850   24.0550 C   0  0  0  0  0  0  0  0  0  0  0  0
   20.7600   49.9830   23.9680 N   0  0  0  0  0  0  0  0  0  0  0  0
   20.4630   49.2820   22.8450 C   0  0  0  0  0  0  0  0  0  0  0  0
   19.5970   48.0430   20.4920 N   0  0  0  0  0  0  0  0  0  0  0  0
   15.2230   47.1076   21.4485 H   0  0  0  0  0  0  0  0  0  0  0  0
   14.0818   46.3316   20.2987 H   0  0  0  0  0  0  0  0  0  0  0  0
   15.8153   45.8611   20.2987 H   0  0  0  0  0  0  0  0  0  0  0  0
   13.3270   48.3919   19.3553 H   0  0  0  0  0  0  0  0  0  0  0  0
   13.7140   50.1978   17.6956 H   0  0  0  0  0  0  0  0  0  0  0  0
   16.6570   51.5750   16.8340 H   0  0  0  0  0  0  0  0  0  0  0  0
   14.3123   53.4235   15.8797 H   0  0  0  0  0  0  0  0  0  0  0  0
   14.7972   55.5616   14.7012 H   0  0  0  0  0  0  0  0  0  0  0  0
   17.5148   56.2797   12.8568 H   0  0  0  0  0  0  0  0  0  0  0  0
   16.3862   55.7987   11.5090 H   0  0  0  0  0  0  0  0  0  0  0  0
   14.8437   57.3918   11.0075 H   0  0  0  0  0  0  0  0  0  0  0  0
   13.8929   56.2173   12.0137 H   0  0  0  0  0  0  0  0  0  0  0  0
   12.6764   58.3782   11.6341 H   0  0  0  0  0  0  0  0  0  0  0  0
   12.9986   58.0374   13.3732 H   0  0  0  0  0  0  0  0  0  0  0  0
   14.5920   59.8280   11.6090 H   0  0  0  0  0  0  0  0  0  0  0  0
   13.2022   60.8193   13.9890 H   0  0  0  0  0  0  0  0  0  0  0  0
   13.6574   61.6800   12.4794 H   0  0  0  0  0  0  0  0  0  0  0  0
   12.2697   60.5394   12.4794 H   0  0  0  0  0  0  0  0  0  0  0  0
   15.9197   60.4341   13.5159 H   0  0  0  0  0  0  0  0  0  0  0  0
   14.9566   59.2815   14.5107 H   0  0  0  0  0  0  0  0  0  0  0  0
   16.7343   58.5871   12.1071 H   0  0  0  0  0  0  0  0  0  0  0  0
   17.0552   58.2215   13.8565 H   0  0  0  0  0  0  0  0  0  0  0  0
   17.5389   53.4895   12.0728 H   0  0  0  0  0  0  0  0  0  0  0  0
   17.0677   51.3522   13.2663 H   0  0  0  0  0  0  0  0  0  0  0  0
   17.9128   49.2227   17.6075 H   0  0  0  0  0  0  0  0  0  0  0  0
   17.5460   46.2370   19.6410 H   0  0  0  0  0  0  0  0  0  0  0  0
   21.9536   46.6182   17.8924 H   0  0  0  0  0  0  0  0  0  0  0  0
   22.9051   47.8996   19.7822 H   0  0  0  0  0  0  0  0  0  0  0  0
   23.3744   49.4407   21.1361 H   0  0  0  0  0  0  0  0  0  0  0  0
   23.9711   50.7492   23.1861 H   0  0  0  0  0  0  0  0  0  0  0  0
   22.2783   51.0578   24.9543 H   0  0  0  0  0  0  0  0  0  0  0  0
   19.4449   48.8747   22.7584 H   0  0  0  0  0  0  0  0  0  0  0  0
  1  2  1  0
  2  3  2  0
  3  4  1  0
  4  5  2  0
  5  6  1  0
  6  7  1  0
  7  8  2  0
  7  9  1  0
  9 10  2  0
 10 11  1  0
 11 12  2  0
 12 13  1  0
 13 14  1  0
 14 15  1  0
 15 16  1  0
 16 17  1  0
 17 18  1  0
 17 19  1  0
 19 20  1  0
 12 21  1  0
 21 22  2  0
  5 23  1  0
 23 24  2  0
 24 25  1  0
 25 26  1  0
 26 27  2  0
 27 28  1  0
 28 29  2  0
 29 30  1  0
 30 31  1  0
 31 32  2  0
 32 33  1  0
 33 34  2  0
 34 35  1  0
 35 36  2  0
 30 37  2  0
 24  2  1  0
 37 26  1  0
 22  9  1  0
 36 31  1  0
 20 14  1  0
  1 38  1  0
  1 39  1  0
  1 40  1  0
  3 41  1  0
  4 42  1  0
  6 43  1  0
 10 44  1  0
 11 45  1  0
 13 46  1  0
 13 47  1  0
 15 48  1  0
 15 49  1  0
 16 50  1  0
 16 51  1  0
 17 52  1  0
 18 53  1  0
 18 54  1  0
 18 55  1  0
 19 56  1  0
 19 57  1  0
 20 58  1  0
 20 59  1  0
 21 60  1  0
 22 61  1  0
 23 62  1  0
 25 63  1  0
 28 64  1  0
 29 65  1  0
 32 66  1  0
 33 67  1  0
 34 68  1  0
 36 69  1  0
M  CHG  1  17   1
M  END
>  <meeko>  (5) 
{"is_sidechain": [false], "free_energy": -9.561, "intermolecular_energy": -13.077, "internal_energy": -0.971}

$$$$